Circuit: *** SPICE deck for cell expt3{lay} from library expt3

Ignoring BSIM parameter XL
Ignoring BSIM parameter XW
Ignoring BSIM parameter XL
Ignoring BSIM parameter XW
Direct Newton iteration for .op point succeeded.

tf=3.34626e-009 FROM 1.379e-008 TO 1.71362e-008
tr=3.87314e-009 FROM 5.5986e-008 TO 5.98591e-008


Date: Sun Nov 06 20:12:14 2022
Total elapsed time: 0.319 seconds.

tnom = 27
temp = 27
method = modified trap
totiter = 2119
traniter = 2110
tranpoints = 1054
accept = 1054
rejected = 0
matrix size = 17
fillins = 10
solver = Normal
Matrix Compiler1:      68 opcodes  0.4/[0.2]/0.3
Matrix Compiler2: 1.38 KB object code size  0.3/0.3/[0.3]


