Circuit: *** SPICE deck for cell expt5{lay} from library expt5

Ignoring BSIM parameter XL
Ignoring BSIM parameter XW
Ignoring BSIM parameter XL
Ignoring BSIM parameter XW
Direct Newton iteration for .op point succeeded.

Multiply defined .measure result:  tf   

  Each .measure statement needs a unique result name.

Date: Sun Nov 06 19:56:35 2022
Total elapsed time: 0.286 seconds.

tnom = 27
temp = 27
method = modified trap
totiter = 2300
traniter = 2292
tranpoints = 1089
accept = 1082
rejected = 7
matrix size = 30
fillins = 26
solver = Normal
Thread vector: 27.5/18.5[3] 9.6/2.5[3] 0.8/0.7[2] 0.4/0.6[1]  2592/500
Matrix Compiler1: 2.56 KB object code size  0.9/0.7/[0.7]
Matrix Compiler2: off  [0.5]/1.0/0.6


