Circuit: *** SPICE deck for cell expt1layout{lay} from library expt1layout

Ignoring BSIM parameter XL
Ignoring BSIM parameter XW
WARNING: Less than two connections to node S.  This node is used by VS.
WARNING: Less than two connections to node W.  This node is used by VW.
.step vg=0
.step vg=1
.step vg=2
.step vg=3
.step vg=4
.step vg=5

Date: Sun Nov 06 20:05:54 2022
Total elapsed time: 0.409 seconds.

tnom = 27
temp = 27
method = trap
totiter = 60027
traniter = 0
tranpoints = 0
accept = 0
rejected = 0
matrix size = 16
fillins = 0
solver = Normal
Matrix Compiler1: 520 bytes object code size  0.2/0.2/[0.2]
Matrix Compiler2: 968 bytes object code size  0.2/0.2/[0.1]


