Circuit: *** SPICE deck for cell expt1{sch} from library expt1

Ignoring BSIM parameter XL
Ignoring BSIM parameter XW
WARNING: Less than two connections to node W.  This node is used by VW.
Warning: Pd = 0 is less than W.
Warning: Ps = 0 is less than W.
.step vg=0
.step vg=1
.step vg=2
.step vg=3
.step vg=4
.step vg=5

Date: Sun Nov 06 20:03:50 2022
Total elapsed time: 0.549 seconds.

tnom = 27
temp = 27
method = trap
totiter = 60027
traniter = 0
tranpoints = 0
accept = 0
rejected = 0
matrix size = 8
fillins = 0
solver = Normal
Matrix Compiler1: 264 bytes object code size  0.2/0.2/[0.1]
Matrix Compiler2: 442 bytes object code size  0.1/0.3/[0.1]


