Circuit: *** SPICE deck for cell expt4{sch} from library expt4

Ignoring BSIM parameter XL
Ignoring BSIM parameter XW
Ignoring BSIM parameter XL
Ignoring BSIM parameter XW
Warning: Pd = 0 is less than W.
Warning: Ps = 0 is less than W.
Warning: Pd = 0 is less than W.
Warning: Ps = 0 is less than W.
Direct Newton iteration for .op point succeeded.

tf=1.93555e-009 FROM 1.45299e-008 TO 1.64654e-008
tr=2.12873e-009 FROM 5.46777e-008 TO 5.68065e-008


Date: Sun Nov 06 19:30:27 2022
Total elapsed time: 0.216 seconds.

tnom = 27
temp = 27
method = modified trap
totiter = 2481
traniter = 2473
tranpoints = 1078
accept = 1076
rejected = 2
matrix size = 8
fillins = 0
solver = Normal
Matrix Compiler1: 336 bytes object code size  0.4/0.3/[0.1]
Matrix Compiler2:      51 opcodes  0.4/[0.3]/0.4


